IEEE data/145_bus/bpa/145bpa.DAT
(POWERFLOW,CASEID=145bpa,PROJECT=TEST)
/P_INPUT_LIST,FULL\
/P_OUTPUT_LIST,FULL\
/P_ANALYSIS_RPT,LEVEL=4\
/TOLERANCE,AIPOWER=0.0001,Q=0.0001\
/NEW_BASE,FILE=145bpa.bse\
/SOL_ITER,DECOUPLED=4,CURRENT=0,NEWTON=30\
/NETWORK_DATA\
.234567890*234567890*234567890*234567890*234567890*234567890*234567890*234567890
B     bus-1    100 1                                                                                                                                                                                                                                                                                       
B     bus-2    100 1                                                                                                                                                                                                                                                                                       
B     bus-3    100 1              -126                                                                                                                                                                                                                                                                     
B     bus-4    100 1              -126                                                                                                                                                                                                                                                                     
B     bus-5    100 1              -126                                                                                                                                                                                                                                                                     
B     bus-6    100 1                                                                                                                                                                                                                                                                                       
B     bus-7    100 1                                                                                                                                                                                                                                                                                       
B     bus-8    100 1                                                                                                                                                                                                                                                                                       
B     bus-9    100 1                                                                                                                                                                                                                                                                                       
B     bus-10   100 1                                                                                                                                                                                                                                                                                       
B     bus-11   100 1                                                                                                                                                                                                                                                                                       
B     bus-12   100 1                                                                                                                                                                                                                                                                                       
B     bus-13   100 1                                                                                                                                                                                                                                                                                       
B     bus-14   100 1                                                                                                                                                                                                                                                                                       
B     bus-15   100 1              -126                                                                                                                                                                                                                                                                     
B     bus-16   100 1              -126                                                                                                                                                                                                                                                                     
B     bus-17   100 1              -250                                                                                                                                                                                                                                                                     
B     bus-18   100 1              -126                                                                                                                                                                                                                                                                     
B     bus-19   100 1              -58.                                                                                                                                                                                                                                                                     
B     bus-20   100 1                                                                                                                                                                                                                                                                                       
B     bus-21   100 1                                                                                                                                                                                                                                                                                       
B     bus-22   100 1                                                                                                                                                                                                                                                                                       
B     bus-23   100 1                                                                                                                                                                                                                                                                                       
B     bus-24   100 1                                                                                                                                                                                                                                                                                       
B     bus-25   100 1                                                                                                                                                                                                                                                                                       
B     bus-26   100 1                                                                                                                                                                                                                                                                                       
B     bus-27   100 1                                                                                                                                                                                                                                                                                       
B     bus-28   100 1              -126                                                                                                                                                                                                                                                                     
B     bus-29   100 1              -126                                                                                                                                                                                                                                                                     
B     bus-30   100 1                                                                                                                                                                                                                                                                                       
B     bus-31   100 1                                                                                                                                                                                                                                                                                       
B     bus-32   100 1                                                                                                                                                                                                                                                                                       
B     bus-33   100 1                                                                                                                                                                                                                                                                                       
B     bus-34   100 145.0546.56                                                                                                                                                                                                                                                                             
B     bus-35   100 149.1927.53                                                                                                                                                                                                                                                                             
B     bus-36   100 1                                                                                                                                                                                                                                                                                       
B     bus-37   100 1                                                                                                                                                                                                                                                                                       
B     bus-38   100 1                                                                                                                                                                                                                                                                                       
B     bus-39   100 1                                                                                                                                                                                                                                                                                       
B     bus-40   100 1                                                                                                                                                                                                                                                                                       
B     bus-41   100 1          54. -10.                                                                                                                                                                                                                                                                     
B     bus-42   100 1          54.8-10.                                                                                                                                                                                                                                                                     
B     bus-43   100 1                                                                                                                                                                                                                                                                                       
B     bus-44   100 1                                                                                                                                                                                                                                                                                       
B     bus-45   100 1                                                                                                                                                                                                                                                                                       
B     bus-46   100 1                                                                                                                                                                                                                                                                                       
B     bus-47   100 1          15.25.37                                                                                                                                                                                                                                                                     
B     bus-48   100 1          13.85.2                                                                                                                                                                                                                                                                      
B     bus-49   100 1                                                                                                                                                                                                                                                                                       
B     bus-50   100 1                                                                                                                                                                                                                                                                                       
B     bus-51   100 158.4528.44                                                                                                                                                                                                                                                                             
B     bus-52   100 1          23. -9.7                                                                                                                                                                                                                                                                     
B     bus-53   100 1          23.2-9.7                                                                                                                                                                                                                                                                     
B     bus-54   100 1          18.8-9.3                                                                                                                                                                                                                                                                     
B     bus-55   100 1          18.7-9.2                                                                                                                                                                                                                                                                     
B     bus-56   100 1          18.6-7.5                                                                                                                                                                                                                                                                     
B     bus-57   100 1          18.8-7.                                                                                                                                                                                                                                                                      
B     bus-58   100 176.3 -10.8121.140.                                                                                                                                                                                                                                                                     
B     bus-59   100 1          508.8.63                                                                                                                                                                                                                                                                     
BQ    bus-60   100 1          201.165.    51.  53.4 -20.41137                                                                                                                                                                                                                                              
B     bus-61   100 1              149.                                                                                                                                                                                                                                                                     
B     bus-62   100 1                                                                                                                                                                                                                                                                                       
B     bus-63   100 1          823.525.                                                                                                                                                                                                                                                                     
B     bus-64   100 1          123.-26.                                                                                                                                                                                                                                                                     
B     bus-65   100 1          124.-26.                                                                                                                                                                                                                                                                     
B     bus-66   100 1102.226.7 216.1897                                                                                                                                                                                                                                                                     
BQ    bus-67   100 1          18211280    1486.891.6-594.1090                                                                                                                                                                                                                                              
B     bus-68   100 1     -7.4156.3-25.                                                                                                                                                                                                                                                                     
B     bus-69   100 1          971.-144                                                                                                                                                                                                                                                                     
B     bus-70   100 1     56.63103.-86.                                                                                                                                                                                                                                                                     
B     bus-71   100 1     -21.2106.-122                                                                                                                                                                                                                                                                     
B     bus-72   100 1          101924.6                                                                                                                                                                                                                                                                     
B     bus-73   100 1          1222841.                                                                                                                                                                                                                                                                     
B     bus-74   100 181.9 43.7 857.574.                                                                                                                                                                                                                                                                     
B     bus-75   100 1          387.199.                                                                                                                                                                                                                                                                     
B     bus-76   100 1          -667-185                                                                                                                                                                                                                                                                     
B     bus-77   100 1              -125                                                                                                                                                                                                                                                                     
B     bus-78   100 189.  26.8                                                                                                                                                                                                                                                                              
BQ    bus-79   100 19.1  3.   238.27.1    250.2150.1-100.1052                                                                                                                                                                                                                                              
BQ    bus-80   100 117.1 5.   -0. 29.9    47.  28.2 -18.81069                                                                                                                                                                                                                                              
B     bus-81   100 182.2 -93.170. -47.                                                                                                                                                                                                                                                                     
BQ    bus-82   100 12.1  1.1  111.-28.    70.  42.  -28. 0975                                                                                                                                                                                                                                              
B     bus-83   100 1          105.-.42                                                                                                                                                                                                                                                                     
B     bus-84   100 124.3 8.2                                                                                                                                                                                                                                                                               
B     bus-85   100 127.4 .3                                                                                                                                                                                                                                                                                
B     bus-86   100 1          292.-22.                                                                                                                                                                                                                                                                     
B     bus-87   100 1          37.7-47.                                                                                                                                                                                                                                                                     
B     bus-88   100 169.  20.9                                                                                                                                                                                                                                                                              
BQ    bus-89   100 10.6  0.2  678.71.1    673. 403.8-269.1066                                                                                                                                                                                                                                              
BQ    bus-90   100 14.6  1.5  29.5-19.    22.  13.2 -8.8 0950                                                                                                                                                                                                                                              
BQ    bus-91   100 1          19.3-27.    64.  38.4 -25.61000                                                                                                                                                                                                                                              
B     bus-92   100 1     31.0243.4-43.                                                                                                                                                                                                                                                                     
BQ    bus-93   100 1100.473.2             700. 766. -520.1000                                                                                                                                                                                                                                              
BQ    bus-94   100 115.4 7.6  140.-141    300. 288. -192.1020                                                                                                                                                                                                                                              
BQ    bus-95   100 16.7  2.2  27.2-58.    131. 108.6-72.40920                                                                                                                                                                                                                                              
BQ    bus-96   100 1          47.8-45.    60.  36.  -24. 1000                                                                                                                                                                                                                                              
BQ    bus-97   100 1          129.-177    140. 84.  -56. 0967                                                                                                                                                                                                                                              
BQ    bus-98   100 1          82.1-121    426. 255.6-170.0970                                                                                                                                                                                                                                              
BQ    bus-99   100 110.465.23             200. 110. -110.1000                                                                                                                                                                                                                                              
BQ    bus-100  100 1          59.1-101    170. 102. -68. 1014                                                                                                                                                                                                                                              
BQ    bus-101  100 117.8 4.5  64.7-238    310.9186.5-124.1039                                                                                                                                                                                                                                              
BQ    bus-102  100 137.6 9.2  458.-619    2040.640.      1019                                                                                                                                                                                                                                              
BQ    bus-103  100 1          62.4-45.    135. 81.  -54. 1000                                                                                                                                                                                                                                              
BQ    bus-104  100 130.2 7.6              2000.500.      1045                                                                                                                                                                                                                                              
BQ    bus-105  100 196.  167.424.2-999    1620.1008.     1007                                                                                                                                                                                                                                              
BQ    bus-106  100 164.  16.  36.9-719    1080.671.      1005                                                                                                                                                                                                                                              
B     bus-107  100 1-17.5-12.828.8-22.                                                                                                                                                                                                                                                                     
BQ    bus-108  100 1          520.-244    800. 480. -320.1014                                                                                                                                                                                                                                              
BQ    bus-109  100 1          84.5-47.    52.  31.2 -20.80915                                                                                                                                                                                                                                              
BQ    bus-110  100 1100.473.2             700. 766.      1000                                                                                                                                                                                                                                              
BQ    bus-111  100 160.4 1166.23.3-999    2000.1000.     1000                                                                                                                                                                                                                                              
BQ    bus-112  100 118.6 4.6  64.3-236    300. 160.      1037                                                                                                                                                                                                                                              
B     bus-113  100 1                                                                                                                                                                                                                                                                                       
B     bus-114  100 1                                                                                                                                                                                                                                                                                       
BQ    bus-115  100 1683.5184.728569.41    2493.1496.-997.1049                                                                                                                                                                                                                                              
BQ    bus-116  100 1792.6315.51930-195    2713.1628.-10851043                                                                                                                                                                                                                                              
BQ    bus-117  100 1485.371.4 2410-54.    2627.1576.-10511030                                                                                                                                                                                                                                              
BQ    bus-118  100 1651.9328.44788-979    4220.2532.-16881010                                                                                                                                                                                                                                              
BQ    bus-119  100 12094.3774.9999-999    8954.5373.-35821013                                                                                                                                                                                                                                              
B     bus-120  100 1-408.175.12026855.                                                                                                                                                                                                                                                                     
BQ    bus-121  100 1237.7-17.3306.1055    2997.1798.-11991046                                                                                                                                                                                                                                              
BQ    bus-122  100 129.2 7.   397.-61.    1009.605.4-404.1000                                                                                                                                                                                                                                              
B     bus-123  100 1-84. -19. 118.1.4                                                                                                                                                                                                                                                                      
BQ    bus-124  100 194.1 780.3766.-999    3005.1803.-12021000                                                                                                                                                                                                                                              
B     bus-125  100 1-712.-319.2831-71.                                                                                                                                                                                                                                                                     
B     bus-126  100 1-333.-160.1604347.                                                                                                                                                                                                                                                                     
B     bus-127  100 1-546.-72. 305.-51.                                                                                                                                                                                                                                                                     
BQ    bus-128  100 14075.703.55252-472    129637778.-51851025                                                                                                                                                                                                                                              
B     bus-129  100 1-482.-122.3855387.                                                                                                                                                                                                                                                                     
BQ    bus-130  100 14328.944.33830-91.    5937.3562.-23751057                                                                                                                                                                                                                                              
BQ    bus-131  100 1218404320.5145-780    2830016980-99991042                                                                                                                                                                                                                                              
BQ    bus-132  100 1491.9110.21239-226    3095.1857.-12381042                                                                                                                                                                                                                                              
B     bus-133  100 1-83. -36.3103.-5.9                                                                                                                                                                                                                                                                     
BQ    bus-134  100 1223097402.-141-78.    2062612375-82501044                                                                                                                                                                                                                                              
BQ    bus-135  100 14298.1264.-999835.    5982.3589.-23931107                                                                                                                                                                                                                                              
BQ    bus-136  100 15295113552-999375.    5195031170-99991083                                                                                                                                                                                                                                              
BQ    bus-137  100 1129462608.499.-219    120687241.-48271064                                                                                                                                                                                                                                              
B     bus-138  100 1-363.-188.433.-81.                                                                                                                                                                                                                                                                     
BQ    bus-139  100 157718139361609-999    5683434100-99991040                                                                                                                                                                                                                                              
BQ    bus-140  100 1247756676.-289-77.    2312313874-92491050                                                                                                                                                                                                                                              
BQ    bus-141  100 132799113615212-999    3791122747-99991053                                                                                                                                                                                                                                              
BQ    bus-142  100 1177373934.43232210    2444914670-97801155                                                                                                                                                                                                                                              
BQ    bus-143  100 14672.1709.586.-999    5254.3152.-21011031                                                                                                                                                                                                                                              
BQ    bus-144  100 19602.2203.-436-999    113976838.-45590997                                                                                                                                                                                                                                              
BS    bus-145  100 19173.1555.-999457.    141189999.-999910525.02  
B     bus-146  100                                                                                                                                                                                                                                                   
-999
.234567890*234567890*234567890*234567890*234567890*234567890*234567890*234567890
.234567890*234567890*234567890*234567890*234567890*234567890*234567890*234567890
L     bus-1    100 bus-2    100       .00003.0008       .0316                                                                                                                                                                                                                                              
L     bus-1    100 bus-2    100A      .00003.0008       .0316                                                                                                                                                                                                                                              
L     bus-1    100 bus-6    100       .00194.0209       118960                                                                                                                                                                                                                                             
L     bus-2    100 bus-6    100       .00194.0209       118960                                                                                                                                                                                                                                             
L     bus-3    100 bus-33   100       .0002 .0221                                                                                                                                                                                                                                                          
L     bus-4    100 bus-33   100       .0002 .0221                                                                                                                                                                                                                                                          
L     bus-5    100 bus-33   100       .0002 .0219                                                                                                                                                                                                                                                          
L     bus-6    100 bus-7    100       .00129.0139       .7326                                                                                                                                                                                                                                              
L     bus-6    100 bus-9    100       .00016.0017       .0876                                                                                                                                                                                                                                              
L     bus-6    100 bus-10   100       .00016.0017       .0876                                                                                                                                                                                                                                              
L     bus-6    100 bus-12   100       .0002 .0021       .4388                                                                                                                                                                                                                                              
L     bus-6    100 bus-12   100A      .0002 .0021       .4388                                                                                                                                                                                                                                              
L     bus-8    100 bus-66   100       .0002 .0299                                                                                                                                                                                                                                                          
L     bus-8    100 bus-66   100A      .0002 .0221                                                                                                                                                                                                                                                          
L     bus-11   100 bus-69   100       .0002 .0262                                                                                                                                                                                                                                                          
L     bus-12   100 bus-14   100       .00096.0091       .4278                                                                                                                                                                                                                                              
L     bus-12   100 bus-14   100A      .00096.0091       .4278                                                                                                                                                                                                                                              
L     bus-12   100 bus-25   100       .00051.0055       .3125                                                                                                                                                                                                                                              
L     bus-12   100 bus-25   100A      .00051.0055       .3125                                                                                                                                                                                                                                              
L     bus-13   100 bus-72   100       .0002 .026                                                                                                                                                                                                                                                           
L     bus-13   100 bus-72   100A      .0003 .0262                                                                                                                                                                                                                                                          
L     bus-13   100 bus-72   100B      .0002 .026                                                                                                                                                                                                                                                           
L     bus-14   100 bus-17   100       .00339.0367       172910                                                                                                                                                                                                                                             
L     bus-14   100 bus-17   100A      .00352.0367       172580                                                                                                                                                                                                                                             
L     bus-15   100 bus-58   100       .0002 .0255                                                                                                                                                                                                                                                          
L     bus-16   100 bus-58   100       .0002 .022                                                                                                                                                                                                                                                           
L     bus-17   100 bus-22   100       .00228.0276       131020                                                                                                                                                                                                                                             
L     bus-18   100 bus-59   100       .0002 .0298                                                                                                                                                                                                                                                          
L     bus-19   100 bus-59   100             .0629                                                                                                                                                                                                                                                          
L     bus-20   100 bus-59   100             .0638                                                                                                                                                                                                                                                          
L     bus-21   100 bus-59   100       .0002 .0329                                                                                                                                                                                                                                                          
L     bus-22   100 bus-24   100       .00173.0208       .9824                                                                                                                                                                                                                                              
L     bus-23   100 bus-83   100       .0004 .0595                                                                                                                                                                                                                                                          
L     bus-23   100 bus-83   100A      .0003 .0597                                                                                                                                                                                                                                                          
L     bus-25   100 bus-27   100       .0023 .0266       152540                                                                                                                                                                                                                                             
L     bus-25   100 bus-27   100A      .0023 .0266       152540                                                                                                                                                                                                                                             
L     bus-26   100 bus-73   100       .0003 .0267                                                                                                                                                                                                                                                          
L     bus-28   100 bus-75   100       .0002 .029                                                                                                                                                                                                                                                           
L     bus-29   100 bus-75   100       .0002 .0269                                                                                                                                                                                                                                                          
L     bus-30   100 bus-78   100             .0335                                                                                                                                                                                                                                                          
L     bus-31   100 bus-74   100       .0003 .0279                                                                                                                                                                                                                                                          
L     bus-32   100 bus-69   100       .0002 .0265                                                                                                                                                                                                                                                          
L     bus-33   100 bus-34   100       .00006.0009       .0003                                                                                                                                                                                                                                              
L     bus-33   100 bus-35   100       .00006.0009       .0003                                                                                                                                                                                                                                              
L     bus-33   100 bus-37   100       .00996.0707       .0558                                                                                                                                                                                                                                              
L     bus-33   100 bus-38   100       .00995.0693       .0555                                                                                                                                                                                                                                              
L     bus-33   100 bus-39   100       .0085 .0699       .0503                                                                                                                                                                                                                                              
L     bus-33   100 bus-40   100       .00849.0698       .0502                                                                                                                                                                                                                                              
L     bus-33   100 bus-49   100       .0056 .0493       .0389                                                                                                                                                                                                                                              
L     bus-33   100 bus-50   100       .0056 .0493       .0389                                                                                                                                                                                                                                              
L     bus-34   100 bus-36   100       .00025.0022       .0003                                                                                                                                                                                                                                              
L     bus-37   100 bus-88   100       .0031 .1651                                                                                                                                                                                                                                                          
L     bus-38   100 bus-88   100       .0031 .1638                                                                                                                                                                                                                                                          
...